[TITLE]
Scenario Run :  BASE

[OPTIONS]
FLOW_UNITS	CFS
INFILTRATION	HORTON
FLOW_ROUTING	DYNWAVE
ALLOW_PONDING	NO
DRY_DAYS	0.000000
SKIP_STEADY_STATE 	NO
IGNORE_RAINFALL	NO
IGNORE_SNOWMELT	NO
IGNORE_GROUNDWATER	NO
IGNORE_QUALITY	NO
FORCE_MAIN_EQUATION	H-W
LINK_OFFSETS	DEPTH
MIN_SLOPE	0.000000
SYS_FLOW_TOL	5.000000
LAT_FLOW_TOL	5.000000
START_DATE	11/09/2017
START_TIME	00:00
END_DATE	11/09/2017
END_TIME	06:00
REPORT_START_DATE	11/09/2017
REPORT_START_TIME	00:00
SWEEP_START	01/01
SWEEP_END	12/31
WET_STEP	00:05:00
DRY_STEP	00:05:00
ROUTING_STEP	1.000000
REPORT_STEP	00:01:00
INERTIAL_DAMPING	PARTIAL
VARIABLE_STEP	0.750000
MINIMUM_STEP	0.000000
LENGTHENING_STEP	0
MIN_SURFAREA	12.557000
NORMAL_FLOW_LIMITED	BOTH
MAX_TRIALS	8
HEAD_TOLERANCE	0.000100

[EXTENDED_OPTIONS]
Conduit_InvertElevation	NO
Rim_Elevation	NO
UnitHydrograph_Type 	Standard
Parallel_Thread	4


[FILES]

[RAINGAGES]

[HYDROGRAPHS]

[EVAPORATION]
CONSTANT	0.000000
DRY_ONLY	NO

[TEMPERATURE]

[ADJUSTMENTS]

[SUBCATCHMENTS]

[SUBAREAS]

[INFILTRATION]

[AQUIFERS]

[GROUNDWATER]

[GWF]

[SNOWPACKS]

[JUNCTIONS]
J1	0.020000	20.000000	0.000000	0.000000	0.000000
J2	0.025000	20.000000	0.000000	0.000000	0.000000
J3	0.030000	20.000000	0.000000	0.000000	0.000000
J4	0.034000	20.000000	0.000000	0.000000	0.000000
J5	0.038000	20.000000	0.000000	0.000000	0.000000
J6	0.044000	20.000000	0.000000	0.000000	0.000000
J7	0.049000	20.000000	0.000000	0.000000	0.000000
J8	0.054000	20.000000	0.000000	0.000000	0.000000

[OUTFALLS]
OF1	0.000000	FIXED	2.000000	NO
OF2	0.000000	FIXED	5.000000	NO
OF3	0.000000	FREE	NO

[DIVIDERS]

[STORAGE]

[CONDUITS]
C1	J1	OF1	100.624000	0.010000	0.000000	0.000000	0.000000	0.000000
C2	J2	J1	97.293000	0.010000	0.000000	0.000000	0.000000	0.000000
C3	J3	J2	96.047000	0.010000	0.000000	0.000000	0.000000	0.000000
C4	J4	J3	86.128000	0.010000	0.000000	0.000000	0.000000	0.000000
C5	J5	J4	87.092000	0.010000	0.000000	0.000000	0.000000	0.000000
C6	J6	J5	93.005000	0.010000	0.000000	0.000000	0.000000	0.000000
C7	J7	J6	98.082000	0.010000	0.000000	0.000000	0.000000	0.000000
C8	J8	J7	105.688000	0.010000	0.000000	0.000000	0.000000	0.000000

[PUMPS]

[ORIFICES]

[WEIRS]
W1	J5	OF2	TRANSVERSE	0.000000	1.000000	NO	0	0.000000	YES
W2	J7	OF3	TRANSVERSE	5.000000	3.330000	NO	0	0.000000	YES

[XSECTIONS]
C1	CIRCULAR	1.000000	0.000000	0.000000	0.000000	1	0
C2	CIRCULAR	1.000000	0.000000	0.000000	0.000000	1	0
C3	CIRCULAR	1.000000	0.000000	0.000000	0.000000	1	0
C4	CIRCULAR	1.000000	0.000000	0.000000	0.000000	1	0
C5	CIRCULAR	1.000000	0.000000	0.000000	0.000000	1	0
C6	CIRCULAR	1.000000	0.000000	0.000000	0.000000	1	0
C7	CIRCULAR	1.000000	0.000000	0.000000	0.000000	1	0
C8	CIRCULAR	1.000000	0.000000	0.000000	0.000000	1	0
W1	RECT_OPEN	20.000000	0.500000	0.000000	0.000000
W2	RECT_OPEN	20.000000	0.250000	0.000000	0.000000

[TRANSECTS]

[LOSSES]
C1	0.000000	0.000000	0.000000	NO	0.000000
C2	0.000000	0.000000	0.000000	NO	0.000000
C3	0.000000	0.000000	0.000000	NO	0.000000
C4	0.000000	0.000000	0.000000	NO	0.000000
C5	0.000000	0.000000	0.000000	NO	0.000000
C6	0.000000	0.000000	0.000000	NO	0.000000
C7	0.000000	0.000000	0.000000	NO	0.000000
C8	0.000000	0.000000	0.000000	NO	0.000000

[CONTROLS]

[POLLUTANTS]

[LANDUSES]

[COVERAGES]

[COND_QUALITY]

[BUILDUP]

[WASHOFF]

[TREATMENT]

[INFLOWS]

[DWF]

[RDII]

[LOADINGS]

[CURVES]

[TIMESERIES]

[PATTERNS]

[REPORT]
INPUT YES
CONTINUITY YES
FLOWSTATS YES
CONTROLS NO
SUBCATCHMENTS  ALL
NODES  ALL
LINKS  ALL

