[TITLE]
Scenario Run :  BASE
Example 1 of Extran Manual

[OPTIONS]
FLOW_UNITS	CFS
INFILTRATION	HORTON
FLOW_ROUTING	DYNWAVE
ALLOW_PONDING	NO
DRY_DAYS	0.000000
SKIP_STEADY_STATE 	NO
IGNORE_RAINFALL	NO
IGNORE_SNOWMELT	NO
IGNORE_GROUNDWATER	NO
IGNORE_QUALITY	NO
FORCE_MAIN_EQUATION	D-W
LINK_OFFSETS	DEPTH
MIN_SLOPE	0.000000
SYS_FLOW_TOL	5.000000
LAT_FLOW_TOL	5.000000
START_DATE	01/01/2002
START_TIME	00:00
END_DATE	01/01/2002
END_TIME	08:00
REPORT_START_DATE	01/01/2002
REPORT_START_TIME	00:00
SWEEP_START	01/01
SWEEP_END	12/31
WET_STEP	00:15:00
DRY_STEP	01:00:00
ROUTING_STEP	20.000000
REPORT_STEP	00:15:00
INERTIAL_DAMPING	NONE
VARIABLE_STEP	0.000000
MINIMUM_STEP	0.500000
LENGTHENING_STEP	0
MIN_SURFAREA	12.557000
NORMAL_FLOW_LIMITED	BOTH
MAX_TRIALS	8
HEAD_TOLERANCE	0.005000

[EXTENDED_OPTIONS]
Conduit_InvertElevation	NO
Rim_Elevation	NO
UnitHydrograph_Type 	Standard
Parallel_Thread	1


[FILES]

[RAINGAGES]

[HYDROGRAPHS]

[EVAPORATION]
CONSTANT	0.000000
DRY_ONLY	NO

[TEMPERATURE]

[ADJUSTMENTS]

[SUBCATCHMENTS]

[SUBAREAS]

[INFILTRATION]

[AQUIFERS]

[GROUNDWATER]

[GWF]

[SNOWPACKS]

[JUNCTIONS]
10309	101.600000	9.400000	0.000000	0.000000	0.000000
15009	111.500000	13.500000	0.000000	0.000000	0.000000
16009	102.000000	18.000000	0.000000	0.000000	0.000000
16109	102.800000	22.200000	0.000000	0.000000	0.000000
80408	124.600000	13.400000	0.000000	0.000000	0.000000
80608	118.300000	16.700000	0.000000	0.000000	0.000000
81009	128.200000	8.800000	0.000000	0.000000	0.000000
81309	117.500000	12.500000	0.000000	0.000000	0.000000
82309	112.300000	42.700000	0.000000	0.000000	0.000000

[OUTFALLS]
10208	89.900000	FREE	NO

[DIVIDERS]

[STORAGE]

[CONDUITS]
1030	10309	10208	4500.000000	0.016000	0.000000	0.000000	0.000000	0.000000
1570	15009	16009	5000.000000	0.015400	0.000000	0.000000	0.000000	0.000000
1600	16109	16009	500.000000	0.015000	0.000000	0.000000	0.000000	0.000000
1602	82309	16109	5000.000000	0.034000	0.000000	0.000000	0.000000	0.000000
1630	16009	10309	300.000000	0.015000	0.000000	0.000000	0.000000	0.000000
8040	80408	80608	1800.000000	0.015000	0.000000	0.000000	0.000000	0.000000
8060	80608	82309	2075.000000	0.015000	0.000000	2.200000	0.000000	0.000000
8100	81009	81309	5100.000000	0.015000	0.000000	0.000000	0.000000	0.000000
8130	81309	15009	3500.000000	0.015000	0.000000	0.000000	0.000000	0.000000

[PUMPS]

[ORIFICES]

[WEIRS]

[XSECTIONS]
1030	TRAPEZOIDAL	9.000000	0.000000	3.000000	3.000000	1	0
1570	CIRCULAR	5.500000	0.000000	0.000000	0.000000	1	0
1600	CIRCULAR	6.000000	0.000000	0.000000	0.000000	1	0
1602	CIRCULAR	5.000000	0.000000	0.000000	0.000000	1	0
1630	TRAPEZOIDAL	9.000000	0.000000	3.000000	3.000000	1	0
8040	CIRCULAR	4.000000	0.000000	0.000000	0.000000	1	0
8060	CIRCULAR	4.000000	0.000000	0.000000	0.000000	1	0
8100	CIRCULAR	4.500000	0.000000	0.000000	0.000000	1	0
8130	CIRCULAR	4.500000	0.000000	0.000000	0.000000	1	0

[TRANSECTS]

[LOSSES]
1030	0.000000	0.000000	0.000000	NO	0.000000
1570	0.000000	0.000000	0.000000	NO	0.000000
1600	0.000000	0.000000	0.000000	NO	0.000000
1602	0.000000	0.000000	0.000000	NO	0.000000
1630	0.000000	0.000000	0.000000	NO	0.000000
8040	0.000000	0.000000	0.000000	NO	0.000000
8060	0.000000	0.000000	0.000000	NO	0.000000
8100	0.000000	0.000000	0.000000	NO	0.000000
8130	0.000000	0.000000	0.000000	NO	0.000000

[CONTROLS]

[POLLUTANTS]

[LANDUSES]

[COVERAGES]

[COND_QUALITY]

[BUILDUP]

[WASHOFF]

[TREATMENT]

[INFLOWS]
80408	FLOW	80408	FLOW  1.0	1.000000
81009	FLOW	81009	FLOW  1.0	1.000000
82309	FLOW	82309	FLOW  1.0	1.000000

[DWF]

[RDII]

[LOADINGS]

[CURVES]

[TIMESERIES]
82309	0	0.000000
82309	0.250000	40.000000
82309	3.000000	40.000000
82309	3.250000	0.000000

80408	0	0.000000
80408	0.250000	45.000000
80408	3.000000	45.000000
80408	3.250000	0.000000

81009	0	0.000000
81009	0.250000	50.000000
81009	3.000000	50.000000
81009	3.250000	0.000000


[PATTERNS]

[REPORT]
INPUT NO
CONTINUITY YES
FLOWSTATS YES
CONTROLS NO
SUBCATCHMENTS  ALL
NODES  ALL
LINKS  ALL

